Version 4
SHEET 1 1744 680
WIRE -304 -240 -752 -240
WIRE -144 -240 -304 -240
WIRE 80 -240 -144 -240
WIRE 688 -240 80 -240
WIRE 1008 -240 688 -240
WIRE 1184 -240 1008 -240
WIRE 1312 -240 1184 -240
WIRE -304 -224 -304 -240
WIRE 80 -224 80 -240
WIRE 1008 -208 1008 -240
WIRE 1184 -208 1184 -240
WIRE -144 -176 -144 -240
WIRE 1120 -160 1088 -160
WIRE -304 -112 -304 -144
WIRE -304 -112 -368 -112
WIRE -240 -112 -304 -112
WIRE 80 -112 80 -144
WIRE 80 -112 0 -112
WIRE 176 -112 80 -112
WIRE 1184 -96 1184 -112
WIRE 1248 -96 1184 -96
WIRE 1312 -96 1248 -96
WIRE 1344 -96 1312 -96
WIRE 544 -80 384 -80
WIRE 624 -80 544 -80
WIRE 816 -80 720 -80
WIRE 1008 -80 1008 -128
WIRE 1088 -80 1088 -160
WIRE 1088 -80 1008 -80
WIRE 1312 -80 1312 -96
WIRE -528 -64 -560 -64
WIRE -432 -64 -448 -64
WIRE -144 -64 -144 -96
WIRE -144 -64 -176 -64
WIRE -64 -64 -144 -64
WIRE -144 -48 -144 -64
WIRE -144 -48 -176 -48
WIRE -80 -48 -144 -48
WIRE 1184 -48 1184 -96
WIRE -176 -32 -176 -48
WIRE 1008 -32 1008 -80
WIRE 1088 0 1088 -80
WIRE 1120 0 1088 0
WIRE -80 16 -80 -48
WIRE 0 16 0 -16
WIRE 64 16 0 16
WIRE 384 16 384 -80
WIRE 384 16 64 16
WIRE 544 16 544 -80
WIRE 560 16 544 16
WIRE 672 16 672 -16
WIRE 672 16 640 16
WIRE 704 16 672 16
WIRE 816 16 816 -80
WIRE 816 16 784 16
WIRE 912 16 816 16
WIRE 944 16 912 16
WIRE 1312 16 1312 0
WIRE 64 32 64 16
WIRE 912 32 912 16
WIRE -176 64 -176 48
WIRE -144 64 -176 64
WIRE -176 80 -176 64
WIRE 1664 112 1664 96
WIRE 912 128 912 112
WIRE 1008 128 1008 64
WIRE 1008 128 912 128
WIRE 240 160 240 -64
WIRE 592 160 240 160
WIRE 672 160 592 160
WIRE 1248 160 1248 -96
WIRE 1248 160 752 160
WIRE -176 176 -176 160
WIRE -144 176 -176 176
WIRE -80 176 -80 112
WIRE -80 176 -144 176
WIRE 1392 208 1392 192
WIRE 1664 224 1664 192
WIRE 1728 224 1664 224
WIRE -368 240 -368 -16
WIRE -96 240 -368 240
WIRE 176 240 176 -16
WIRE 176 240 -96 240
WIRE 1664 256 1664 224
WIRE -96 272 -96 240
WIRE 592 288 592 240
WIRE 1392 304 1392 288
WIRE 1664 352 1664 336
WIRE -240 384 -240 -16
WIRE -240 384 -768 384
WIRE -144 384 -144 176
WIRE -144 384 -240 384
WIRE -96 384 -96 352
WIRE -96 384 -144 384
WIRE 64 384 64 112
WIRE 64 384 -96 384
WIRE 688 384 64 384
WIRE 1008 384 1008 128
WIRE 1008 384 688 384
WIRE 1184 384 1184 48
WIRE 1184 384 1008 384
WIRE 1312 384 1184 384
FLAG 1312 16 0
FLAG 592 288 0
FLAG -560 -64 Vin
FLAG 1344 -96 Vout
FLAG 1728 224 0
FLAG 1664 96 Vcc
FLAG 1664 352 Vee
FLAG 688 384 Vee
FLAG 688 -240 Vcc
FLAG 1392 304 0
FLAG 1392 192 Vin
FLAG 1088 -160 X
FLAG 384 -80 A
SYMBOL npn -432 -112 R0
SYMATTR InstName Q1
SYMBOL npn 240 -112 M0
SYMATTR InstName Q2
SYMBOL npn 624 -16 R270
SYMATTR InstName Q5
SYMBOL res 656 0 R90
WINDOW 0 0 56 VBottom 2
WINDOW 3 32 56 VTop 2
SYMATTR InstName R1
SYMATTR Value 1k
SYMBOL res 800 0 R90
WINDOW 0 0 56 VBottom 2
WINDOW 3 32 56 VTop 2
SYMATTR InstName R2
SYMATTR Value 2k
SYMBOL npn 1120 -208 R0
SYMATTR InstName Q7
SYMBOL pnp 1120 48 M180
SYMATTR InstName Q8
SYMBOL res 1296 -96 R0
SYMATTR InstName R3
SYMATTR Value 100
SYMBOL res 576 144 R0
SYMATTR InstName R4
SYMATTR Value 10k
SYMBOL res 768 144 R90
WINDOW 0 0 56 VBottom 2
WINDOW 3 32 56 VTop 2
SYMATTR InstName R5
SYMATTR Value 10k
SYMBOL current 1008 -208 R0
WINDOW 123 0 0 Left 0
WINDOW 39 0 0 Left 0
SYMATTR InstName I3
SYMATTR Value 1m
SYMBOL current 912 32 R0
WINDOW 123 0 0 Left 0
WINDOW 39 0 0 Left 0
SYMATTR InstName I4
SYMATTR Value 0.5m
SYMBOL res -432 -80 R90
WINDOW 0 0 56 VBottom 2
WINDOW 3 32 56 VTop 2
SYMATTR InstName R6
SYMATTR Value 5k
SYMBOL voltage 1392 192 R0
WINDOW 123 0 0 Left 0
WINDOW 39 0 0 Left 0
SYMATTR InstName V1
SYMATTR Value SINE(0 5 1k)
SYMBOL voltage 1664 240 R0
WINDOW 123 0 0 Left 0
WINDOW 39 0 0 Left 0
SYMATTR InstName V2
SYMATTR Value 10
SYMBOL voltage 1664 96 R0
WINDOW 123 0 0 Left 0
WINDOW 39 0 0 Left 0
SYMATTR InstName V3
SYMATTR Value 10
SYMBOL pnp 944 64 M180
SYMATTR InstName Q6
SYMBOL current -304 -224 R0
WINDOW 123 0 0 Left 0
WINDOW 39 0 0 Left 0
SYMATTR InstName I2
SYMATTR Value 2m
SYMBOL pnp -176 -16 R180
SYMATTR InstName Q3
SYMBOL pnp -64 -16 M180
SYMATTR InstName Q4
SYMBOL current 80 -224 R0
WINDOW 123 0 0 Left 0
WINDOW 39 0 0 Left 0
SYMATTR InstName I5
SYMATTR Value 2m
SYMBOL current 64 32 R0
WINDOW 123 0 0 Left 0
WINDOW 39 0 0 Left 0
SYMATTR InstName I6
SYMATTR Value 1m
SYMBOL current -96 272 R0
WINDOW 123 0 0 Left 0
WINDOW 39 0 0 Left 0
SYMATTR InstName I1
SYMATTR Value 2m
SYMBOL npn -144 16 R0
SYMATTR InstName Q9
SYMBOL res -192 -48 R0
SYMATTR InstName R7
SYMATTR Value 50k
SYMBOL res -192 64 R0
SYMATTR InstName R8
SYMATTR Value 2k
SYMBOL current -144 -176 R0
WINDOW 123 0 0 Left 0
WINDOW 39 0 0 Left 0
SYMATTR InstName I7
SYMATTR Value 0.5m
TEXT -600 424 Left 2 !.tran 0 2m 0 0.1u
TEXT -600 456 Left 2 !.fourier 1k V(Vout)
