Version 4
SHEET 1 1876 680
WIRE -736 -240 -752 -240
WIRE -288 -240 -736 -240
WIRE -144 -240 -288 -240
WIRE 128 -240 -144 -240
WIRE 688 -240 128 -240
WIRE 1008 -240 688 -240
WIRE 1184 -240 1008 -240
WIRE 1312 -240 1184 -240
WIRE -736 -224 -736 -240
WIRE -288 -224 -288 -240
WIRE 128 -224 128 -240
WIRE 1008 -224 1008 -240
WIRE 1184 -208 1184 -240
WIRE -352 -176 -672 -176
WIRE 64 -176 -352 -176
WIRE 944 -176 64 -176
WIRE -144 -160 -144 -240
WIRE 1120 -160 1088 -160
WIRE -736 -112 -736 -128
WIRE -672 -112 -672 -176
WIRE -672 -112 -736 -112
WIRE -288 -112 -288 -128
WIRE -288 -112 -368 -112
WIRE -240 -112 -288 -112
WIRE 128 -112 128 -128
WIRE 128 -112 0 -112
WIRE 176 -112 128 -112
WIRE 1184 -96 1184 -112
WIRE 1248 -96 1184 -96
WIRE 1312 -96 1248 -96
WIRE 1344 -96 1312 -96
WIRE 1008 -80 1008 -128
WIRE 1088 -80 1088 -160
WIRE 1088 -80 1008 -80
WIRE 1312 -80 1312 -96
WIRE -528 -64 -560 -64
WIRE -432 -64 -448 -64
WIRE -144 -64 -144 -80
WIRE -144 -64 -176 -64
WIRE -64 -64 -144 -64
WIRE 1184 -48 1184 -96
WIRE 1008 -32 1008 -80
WIRE 1088 0 1088 -80
WIRE 1120 0 1088 0
WIRE -736 16 -736 -112
WIRE 0 16 0 -16
WIRE 64 16 0 16
WIRE 944 16 64 16
WIRE 960 16 944 16
WIRE 1312 16 1312 0
WIRE -240 32 -240 -16
WIRE -160 32 -240 32
WIRE 64 32 64 16
WIRE -160 80 -160 32
WIRE -160 80 -176 80
WIRE 0 80 -160 80
WIRE -144 112 -144 -64
WIRE 1664 112 1664 96
WIRE 240 160 240 -64
WIRE 592 160 240 160
WIRE 672 160 592 160
WIRE 1248 160 1248 -96
WIRE 1248 160 752 160
WIRE 1392 208 1392 192
WIRE 1664 224 1664 192
WIRE 1728 224 1664 224
WIRE -736 240 -736 96
WIRE -672 240 -736 240
WIRE -368 240 -368 -16
WIRE -16 240 -368 240
WIRE 176 240 176 -16
WIRE 176 240 -16 240
WIRE -736 256 -736 240
WIRE -16 256 -16 240
WIRE 1664 256 1664 224
WIRE 592 288 592 240
WIRE -672 304 -672 240
WIRE -80 304 -672 304
WIRE 1392 304 1392 288
WIRE 1664 352 1664 336
WIRE -736 384 -736 352
WIRE -736 384 -768 384
WIRE -240 384 -240 128
WIRE -240 384 -736 384
WIRE -144 384 -144 192
WIRE -144 384 -240 384
WIRE -16 384 -16 352
WIRE -16 384 -144 384
WIRE 64 384 64 128
WIRE 64 384 -16 384
WIRE 688 384 64 384
WIRE 1008 384 1008 64
WIRE 1008 384 688 384
WIRE 1184 384 1184 48
WIRE 1184 384 1008 384
WIRE 1312 384 1184 384
FLAG 1312 16 0
FLAG 592 288 0
FLAG 1344 -96 Vout
FLAG 1728 224 0
FLAG 1664 96 Vcc
FLAG 1664 352 Vee
FLAG 688 384 Vee
FLAG 688 -240 Vcc
FLAG 1392 304 0
FLAG 1392 192 Vin
FLAG 1088 -160 X
FLAG -560 -64 Vin
SYMBOL npn -432 -112 R0
SYMATTR InstName Q1
SYMBOL npn 240 -112 M0
SYMATTR InstName Q2
SYMBOL npn 1120 -208 R0
SYMATTR InstName Q7
SYMATTR Value mynpn
SYMBOL pnp 1120 48 M180
SYMATTR InstName Q8
SYMATTR Value mypnp
SYMBOL res 1296 -96 R0
SYMATTR InstName R3
SYMATTR Value 100
SYMBOL res 576 144 R0
SYMATTR InstName R4
SYMATTR Value 2k
SYMBOL res 768 144 R90
WINDOW 0 0 56 VBottom 2
WINDOW 3 32 56 VTop 2
SYMATTR InstName R5
SYMATTR Value 2k
SYMBOL res -432 -80 R90
WINDOW 0 0 56 VBottom 2
WINDOW 3 32 56 VTop 2
SYMATTR InstName R6
SYMATTR Value 5k
SYMBOL voltage 1392 192 R0
WINDOW 123 0 0 Left 0
WINDOW 39 0 0 Left 0
SYMATTR InstName V1
SYMATTR Value SINE(0 0 1k)
SYMBOL voltage 1664 240 R0
WINDOW 123 0 0 Left 0
WINDOW 39 0 0 Left 0
SYMATTR InstName V2
SYMATTR Value 10
SYMBOL voltage 1664 96 R0
WINDOW 123 0 0 Left 0
WINDOW 39 0 0 Left 0
SYMATTR InstName V3
SYMATTR Value 10
SYMBOL pnp 944 64 M180
SYMATTR InstName Q6
SYMATTR Value mypnp
SYMBOL pnp -176 -16 R180
SYMATTR InstName Q3
SYMATTR Value mypnp
SYMBOL pnp -64 -16 M180
SYMATTR InstName Q4
SYMATTR Value mypnp
SYMBOL pnp -672 -128 R180
SYMATTR InstName Q10
SYMATTR Value mypnp
SYMBOL res -752 0 R0
SYMATTR InstName R9
SYMATTR Value 34k
SYMBOL npn -672 256 M0
SYMATTR InstName Q11
SYMATTR Value mynpn
SYMBOL pnp -352 -128 M180
SYMATTR InstName Q12
SYMATTR Value mypnp
SYMBOL npn -80 256 R0
SYMATTR InstName Q17
SYMATTR Value mynpn
SYMBOL npn 0 32 R0
SYMATTR InstName Q19
SYMATTR Value mynpn
SYMBOL pnp 944 -128 M180
SYMATTR InstName Q20
SYMATTR Value mypnp
SYMBOL res -160 96 R0
SYMATTR InstName R8
SYMATTR Value 190K
SYMBOL res -160 -176 R0
SYMATTR InstName R7
SYMATTR Value 10K
SYMBOL pnp 64 -128 M180
SYMATTR InstName Q15
SYMATTR Value mypnp
SYMBOL npn -176 32 M0
SYMATTR InstName Q14
SYMATTR Value mynpn
TEXT -600 424 Left 2 !.tran 0 2m 0 0.1u
TEXT -600 456 Left 2 !.fourier 1k V(Vout)
TEXT 1424 -216 Left 2 !.model mypnp AKO: 2N3906 (bf=150)
TEXT 1432 -152 Left 2 !.model mynpn AKO: 2N3904 (bf=200)
